17
O=C1Oc2ccccc2C=C1
O 3.2229539255 -0.8432751507 -0.0009854052
C 2.1549313967 -0.2911930580 0.0012474058
O 1.0086846640 -1.0889850068 0.0002400235
C -0.2540860619 -0.5720474464 0.0000957785
C -1.3176142067 -1.4729468965 -0.0000460433
C -2.6164575369 -0.9823341201 -0.0000743503
C -2.8628839862 0.3974293297 -0.0000155570
C -1.8001899288 1.2861354144 0.0000801300
C -0.4755556019 0.8157899838 0.0001736755
C 0.6833743437 1.6710249099 0.0000629358
C 1.9277486626 1.1493740724 0.0001704831
H -1.1080063850 -2.5352589152 -0.0000903510
H -3.4476343294 -1.6780840733 -0.0001671231
H -3.8814420679 0.7664276857 -0.0000783584
H -1.9766550672 2.3564182634 0.0000621546
H 0.5385895208 2.7468681296 -0.0003224562
H 2.8188956943 1.7624777082 -0.0003556144
