33
c1c(ccc(c1)C(C(=O)O)C)CC(C)C
C 0.6674649619 -0.5222871607 1.1156154921
C 1.4764016076 -0.7678329607 -0.0031544475
C 0.8442316148 -0.9074216778 -1.2403971798
C -0.5422409681 -0.7993667519 -1.3598954125
C -1.3452439320 -0.5492480569 -0.2439836994
C -0.7131301135 -0.4137802933 1.0007499509
C -2.8578268633 -0.4389668482 -0.3727357907
C -3.3848386337 0.9576930177 0.0064351743
O -4.4191149313 1.1560686752 0.5811693580
O -2.6256787168 2.0035516298 -0.4095250259
C -3.6161721889 -1.5363437402 0.3868397144
C 2.9788809810 -0.8634299847 0.1382977828
C 3.6964295180 0.4901337673 0.3632139833
C 5.1728985056 0.2576052106 0.7106657546
C 3.5588641747 1.4240829935 -0.8454556400
H 1.1260421151 -0.4165336923 2.0938499909
H 1.4388674445 -1.1067077921 -2.1261441534
H -1.0025217251 -0.9208957193 -2.3357694599
H -1.3054542027 -0.2199237308 1.8893265957
H -3.1014575356 -0.5336662975 -1.4395973938
H -1.7881524982 1.6785938753 -0.7695495379
H -3.4333901031 -1.4712515030 1.4613011971
H -3.2920015550 -2.5203229614 0.0413471439
H -4.6904539416 -1.4377694833 0.2279926110
H 3.4000301681 -1.3396854170 -0.7543131042
H 3.2137736717 -1.5215125633 0.9825246321
H 3.2206239832 0.9782107133 1.2235326101
H 5.2816094442 -0.3593160952 1.6077965183
H 5.6934123740 -0.2506019781 -0.1086429412
H 5.6863342600 1.2064612646 0.8899339155
H 4.0543354691 2.3806368940 -0.6556857685
H 4.0226951533 0.9816614385 -1.7345034999
H 2.5124277479 1.6312100614 -1.0818968855
