107
Generated Molecular Structure
C 4.1110588133 -1.2509858966 -0.3297124599 
C 4.7269669723 -0.1478873314 0.2527372989 
C 4.0073387669 1.0263183536 0.4417769788 
C 2.6668521202 1.1274986971 0.0572517518 
C 2.0563963387 -0.0048365023 -0.5099193754 
C 2.7698669298 -1.2001862808 -0.7128880054 
C 2.1034809265 -2.4108454739 -1.3206969696 
C 0.6915496666 0.0465001764 -0.9318545573 
O -0.3923493514 0.2357442435 -0.1013652708 
O -0.2935878216 0.420692368 1.0941047405 
C -1.7297542059 0.2508352682 -0.8606394047 
C -2.8775740257 0.0264614103 -0.0121066761 
C -4.1256336989 0.4253933092 -0.6649530596 
C -5.3083373667 0.5459202435 0.2943042945 
C -2.9134292127 -1.3234934474 0.5830136637 
H -3.0215661081 -1.3158093426 2.1091526993 
H 1.9231989051 2.4241772294 0.2437467842 
H 4.6698114524 -2.1690674579 -0.4783493961 
H 5.7672727523 -0.2024327093 0.5537380591 
H 4.4909576674 1.8897913664 0.88619265 
H 2.7742227403 -3.2711473832 -1.2945215419 
H 1.1892283128 -2.6755161301 -0.7821283867 
H 1.8279385814 -2.2485943518 -2.3696242125 
H 0.4913088106 -0.2877097092 -1.8637773135 
H -1.6726012699 -0.4658784627 -1.7066391661 
H -1.8136088592 1.2462096384 -1.3107837132 
H -4.3922972248 -0.2736766556 -1.4826449831 
H -3.9551398595 1.4003887431 -1.1319087362 
H -5.0841845493 1.2532133591 1.0961689412 
H -5.5673971394 -0.4142975704 0.7462785865 
H -6.1892551602 0.9011576307 -0.2481539422 
H -1.9987930247 -1.8575407135 0.3036340088 
H -3.7414493403 -1.9001667962 0.1431314914 
C -3.0223504961 -2.3412325107 2.4940949366 
C -3.9393583516 -0.8277135947 2.4430187308 
C -2.1740709054 -0.7768300577 2.533954859 
C 1.2174545882 2.3520112824 1.0753089083 
O 2.6197941972 3.2398544924 0.445848164 
O 1.3455998587 2.6816290325 -0.6487732539 
O -4.316663833871002 -7.8693220344009855 1.0751214911630131 
O -3.1744390031313197 -7.670837805168527 0.7566906645506694 
H -2.5299738546240533 -8.649563339285619 -0.0029905724437345182 
H -1.2355075762111034 -8.532402040654816 -0.4182551296886394 
H -0.7051127875657316 -9.577698420147517 -1.1724094913964533 
H 0.6090788748877796 -9.492314462819065 -1.6120738494490907 
H 1.3974546472922993 -8.374579079673417 -1.3061254379070792 
H 0.8626776572509749 -7.339956796429814 -0.5560004645125028 
H -0.46505731321938043 -7.401316669769118 -0.09857752349101795 
H -1.0959362107524635 -6.37064862925028 0.6851702782880201 
H -2.3766633357545794 -6.496600631256311 1.0907084119366308 
H -1.3290693125712074 -10.43314741680123 -1.3989653012595062 
O 1.0270805721832559 -10.302105064509952 -2.1989610863578477 
C 2.421466334719238 -8.321115419058431 -1.6556423294556621 
O 1.4617036202535247 -6.469173756312342 -0.3119715421490976 
C -0.5215079578059066 -5.487108554419706 0.9455364535658196 
C -2.8802863459774004 -5.742389932926711 1.6802586330516442 
C -7.636319746141775 -0.7479210049389144 4.9061841247693625 
C -7.472942961143857 -2.2429520424285156 4.625785202326421 
C -8.791755233347454 -2.921156736221228 4.254470708515077 
C -8.65444935384172 -4.430044683459838 4.0982761698545795 
C -9.929730694932223 -4.892382032454233 3.6295033586761845 
C -9.202409684702088 -2.3299166723402753 3.0237489955781003 
H -6.966740574798758 -2.904778991864574 5.800626881876491 
H -8.447126333266635 -0.5027593810697417 6.045765901604163 
H -8.11941460325761 -0.2636410065908681 4.057124742172463 
H -6.638244317067977 -0.30093526178233887 5.036691246691423 
H -6.779008658216674 -2.372151957032313 3.7848345254511586 
H -9.535341197878816 -2.715852740249503 5.034819275911051 
C -8.396714678955767 -4.886484733048383 5.057455357432724 
C -7.870823232446234 -4.656423425580038 3.3633175840720484 
C -9.873319894660188 -5.828381370532465 3.4198521236239303 
C -9.953931955598494 -2.844406671354617 2.705035290377233 
C -6.0309949083542715 -2.6988854063542314 5.891218542216455 
C -8.125249693658754 -1.0725917927700332 6.754758601359024 
C -2.0865498149745516 -10.158189496113032 -6.574115442128731 
N -2.523587788842087 -10.153689282173861 -7.906517397950943 
C -3.033652525518031 -11.34612924036496 -8.42402527120164 
O -3.1120182769441187 -12.498863449760506 -7.640874858282303 
C -2.680692769782323 -12.498785363740677 -6.311743422408236 
N -2.1631402689518042 -11.303641115822362 -5.7911179425722565 
C -2.758915234740849 -13.757637404920823 -5.459793333225223 
C -3.7035965016335246 -13.599479696766947 -4.2536696865004995 
C -3.5057273923550967 -14.081834597054131 -3.1731229226159705 
C -4.849679746353372 -12.912130340871652 -4.492857819994882 
C -1.3854265858676738 -14.280082976329524 -5.016106303625702 
H -2.4503781739620196 -8.892334979955553 -8.73731067459167 
H -3.510202579657785 -7.820365108117577 -8.38340270083323 
H -3.209835233509158 -6.510959861587337 -9.12501600447049 
H -4.936952561116966 -8.300650828215685 -8.676281099765376 
H -1.6770943340115454 -9.249999016294785 -6.142889518006597 
H -3.373012659545032 -11.380946524175249 -9.454305273307188 
H -3.506821857973898 -13.411576954717308 -8.07681294086536 
H -1.8178171718045433 -11.266990150113527 -4.762815792207791 
H -3.2370429984524156 -14.5350823718773 -6.070932217010564 
H -4.815002930396804 -12.51232877988816 -5.373551630898088 
H -0.8749137403542329 -13.556075790087755 -4.377902576846369 
H -0.7592382179827153 -14.470304645376387 -5.890389248934474 
H -1.494146645326139 -15.203564346488761 -4.446551496599803 
H -2.5504266821299897 -9.14770401321199 -9.798308800437429 
H -1.4566672389562432 -8.446269574308408 -8.616768312681387 
H -3.434387898537035 -7.622672189006544 -7.306403259959671 
H -2.2154948689311174 -6.127984481182165 -8.876277848425746 
H -3.249195249150345 -6.656790692834331 -10.210216506996693 
H -3.9417860944360728 -5.739850242421769 -8.868658732211834 
H -5.668771793921703 -7.536471005515239 -8.398847177290314 
H -5.065964163695406 -8.510293992134216 -9.744310994690043 
H -5.180245132857506 -9.211852998375985 -8.124597667174337 
